@<TRIPOS>MOLECULE
3VB
 18 17 0 0 0
SMALL
GASTEIGER

@<TRIPOS>ATOM
      1 O           3.0630   -0.0370   -0.3720 O.3     1  UNL1       -0.3924
      2 C           1.8130    0.6450   -0.2550 C.3     1  UNL1        0.0726
      3 C           0.6700   -0.3700   -0.3170 C.3     1  UNL1        0.1061
      4 O           0.7370   -1.2340    0.8190 O.3     1  UNL1       -0.3869
      5 C          -0.6700    0.3700   -0.3170 C.3     1  UNL1        0.1061
      6 O          -0.7370    1.2340    0.8190 O.3     1  UNL1       -0.3869
      7 C          -1.8130   -0.6450   -0.2550 C.3     1  UNL1        0.0726
      8 O          -3.0630    0.0370   -0.3720 O.3     1  UNL1       -0.3924
      9 H           3.8340    0.5450   -0.3400 H       1  UNL1        0.2095
     10 H           1.7760    1.1750    0.6970 H       1  UNL1        0.0584
     11 H           1.7100    1.3590   -1.0720 H       1  UNL1        0.0584
     12 H           0.7580   -0.9610   -1.2290 H       1  UNL1        0.0643
     13 H           0.6640   -0.7750    1.6670 H       1  UNL1        0.2100
     14 H          -0.7580    0.9610   -1.2290 H       1  UNL1        0.0643
     15 H          -0.6640    0.7750    1.6670 H       1  UNL1        0.2100
     16 H          -1.7100   -1.3590   -1.0720 H       1  UNL1        0.0584
     17 H          -1.7760   -1.1750    0.6970 H       1  UNL1        0.0584
     18 H          -3.8340   -0.5450   -0.3400 H       1  UNL1        0.2095
@<TRIPOS>BOND
     1     1     2    1
     2     1     9    1
     3     2    10    1
     4     2    11    1
     5     3     2    1
     6     3     4    1
     7     3    12    1
     8     4    13    1
     9     5     3    1
    10     5    14    1
    11     6     5    1
    12     6    15    1
    13     7     5    1
    14     7    16    1
    15     7    17    1
    16     8     7    1
    17     8    18    1
