@<TRIPOS>MOLECULE
AHR
 20 20 0 0 0
SMALL
GASTEIGER

@<TRIPOS>ATOM
      1 O          -0.6300   -0.0370    3.2190 O.3     1  UNL1       -0.3924
      2 C           0.3690   -0.4040    2.2670 C.3     1  UNL1        0.0730
      3 C           0.0800    0.2860    0.9330 C.3     1  UNL1        0.1131
      4 O          -1.1780   -0.1580    0.4030 O.3     1  UNL1       -0.3407
      5 C           1.1350   -0.1260   -0.1250 C.3     1  UNL1        0.1141
      6 O           2.2880    0.7150   -0.0640 O.3     1  UNL1       -0.3864
      7 C           0.3390    0.1080   -1.4390 C.3     1  UNL1        0.1339
      8 O           0.8040   -0.7510   -2.4810 O.3     1  UNL1       -0.3841
      9 C          -1.1000   -0.2610   -1.0220 C.3     1  UNL1        0.1854
     10 O          -2.0280    0.6420   -1.6250 O.3     1  UNL1       -0.3649
     11 H          -0.4110   -0.4930    4.0440 H       1  UNL1        0.2095
     12 H           1.3490   -0.0950    2.6310 H       1  UNL1        0.0584
     13 H           0.3580   -1.4850    2.1260 H       1  UNL1        0.0584
     14 H           0.0760    1.3680    1.0610 H       1  UNL1        0.0647
     15 H           1.4110   -1.1740   -0.0140 H       1  UNL1        0.0648
     16 H           2.8480    0.4760   -0.8150 H       1  UNL1        0.2100
     17 H           0.3980    1.1530   -1.7450 H       1  UNL1        0.0671
     18 H           0.2150   -0.6190   -3.2360 H       1  UNL1        0.2101
     19 H          -1.3240   -1.2820   -1.3320 H       1  UNL1        0.0935
     20 H          -2.9100    0.3740   -1.3310 H       1  UNL1        0.2126
@<TRIPOS>BOND
     1     1     2    1
     2     1    11    1
     3     2     3    1
     4     2    12    1
     5     2    13    1
     6     3     4    1
     7     3     5    1
     8     3    14    1
     9     4     9    1
    10     5     6    1
    11     5     7    1
    12     5    15    1
    13     6    16    1
    14     7     8    1
    15     7     9    1
    16     7    17    1
    17     8    18    1
    18     9    10    1
    19     9    19    1
    20    10    20    1
