@<TRIPOS>MOLECULE
ALL
 24 24 0 0 0
SMALL
GASTEIGER

@<TRIPOS>ATOM
      1 C           0.9810    1.1410   -0.2240 C.3     1  UNL1        0.1854
      2 C           1.6500   -0.0220    0.5130 C.3     1  UNL1        0.1339
      3 C           0.8920   -1.3160    0.2040 C.3     1  UNL1        0.1141
      4 C          -0.5770   -1.1430    0.6040 C.3     1  UNL1        0.1119
      5 C          -1.1600    0.0640   -0.1380 C.3     1  UNL1        0.1130
      6 C          -2.6090    0.2800    0.3010 C.3     1  UNL1        0.0730
      7 O           1.6500    2.3610    0.1040 O.3     1  UNL1       -0.3649
      8 O           3.0060   -0.1470    0.0780 O.3     1  UNL1       -0.3841
      9 O           0.9770   -1.5980   -1.1940 O.3     1  UNL1       -0.3864
     10 O          -1.3100   -2.3180    0.2530 O.3     1  UNL1       -0.3865
     11 O          -0.3900    1.2270    0.1700 O.3     1  UNL1       -0.3407
     12 O          -3.1900    1.3320   -0.4740 O.3     1  UNL1       -0.3924
     13 H           1.0410    0.9710   -1.2990 H       1  UNL1        0.0935
     14 H           1.6270    0.1660    1.5870 H       1  UNL1        0.0671
     15 H           1.3280   -2.1390    0.7700 H       1  UNL1        0.0648
     16 H          -0.6450   -0.9770    1.6790 H       1  UNL1        0.0647
     17 H          -1.1290   -0.1200   -1.2120 H       1  UNL1        0.0647
     18 H          -3.1760   -0.6380    0.1500 H       1  UNL1        0.0584
     19 H          -2.6330    0.5520    1.3570 H       1  UNL1        0.0584
     20 H           1.2780    3.1410   -0.3290 H       1  UNL1        0.2126
     21 H           3.5440    0.6390    0.2380 H       1  UNL1        0.2101
     22 H           1.8800   -1.7140   -1.5180 H       1  UNL1        0.2100
     23 H          -0.9910   -3.1230    0.6830 H       1  UNL1        0.2100
     24 H          -4.1100    1.5240   -0.2490 H       1  UNL1        0.2095
@<TRIPOS>BOND
     1     1     2    1
     2     1     7    1
     3     1    11    1
     4     1    13    1
     5     2     3    1
     6     2     8    1
     7     2    14    1
     8     3     4    1
     9     3     9    1
    10     3    15    1
    11     4     5    1
    12     4    10    1
    13     4    16    1
    14     5     6    1
    15     5    11    1
    16     5    17    1
    17     6    12    1
    18     6    18    1
    19     6    19    1
    20     7    20    1
    21     8    21    1
    22     9    22    1
    23    10    23    1
    24    12    24    1
