@<TRIPOS>MOLECULE
GAL
 24 24 0 0 0
SMALL
GASTEIGER

@<TRIPOS>ATOM
      1 C           0.5160    1.4090   -0.1910 C.3     1  UNL1        0.1854
      2 C           1.5220    0.3020    0.1360 C.3     1  UNL1        0.1339
      3 C           1.1030   -0.9860   -0.5780 C.3     1  UNL1        0.1141
      4 C          -0.3220   -1.3520   -0.1520 C.3     1  UNL1        0.1119
      5 C          -1.2580   -0.1820   -0.4680 C.3     1  UNL1        0.1130
      6 C          -2.6720   -0.5160    0.0090 C.3     1  UNL1        0.0730
      7 O           0.8700    2.5990    0.5170 O.3     1  UNL1       -0.3649
      8 O           2.8230    0.6930   -0.3080 O.3     1  UNL1       -0.3841
      9 O           1.9950   -2.0440   -0.2200 O.3     1  UNL1       -0.3864
     10 O          -0.3480   -1.6180    1.2510 O.3     1  UNL1       -0.3865
     11 O          -0.7930    0.9920    0.2020 O.3     1  UNL1       -0.3407
     12 O          -3.5670    0.5250   -0.3890 O.3     1  UNL1       -0.3924
     13 H           0.5280    1.6060   -1.2630 H       1  UNL1        0.0935
     14 H           1.5400    0.1320    1.2130 H       1  UNL1        0.0671
     15 H           1.1330   -0.8310   -1.6570 H       1  UNL1        0.0648
     16 H          -0.6500   -2.2370   -0.6980 H       1  UNL1        0.0647
     17 H          -1.2690   -0.0060   -1.5440 H       1  UNL1        0.0647
     18 H          -2.9920   -1.4590   -0.4340 H       1  UNL1        0.0584
     19 H          -2.6780   -0.6040    1.0950 H       1  UNL1        0.0584
     20 H           0.2740    3.3430    0.3570 H       1  UNL1        0.2126
     21 H           3.1510    1.5060    0.1000 H       1  UNL1        0.2101
     22 H           2.9180   -1.8760   -0.4550 H       1  UNL1        0.2100
     23 H           0.2270   -2.3470    1.5240 H       1  UNL1        0.2100
     24 H          -4.4840    0.3790   -0.1190 H       1  UNL1        0.2095
@<TRIPOS>BOND
     1     1     2    1
     2     1     7    1
     3     1    11    1
     4     1    13    1
     5     2     3    1
     6     2     8    1
     7     2    14    1
     8     3     4    1
     9     3     9    1
    10     3    15    1
    11     4     5    1
    12     4    10    1
    13     4    16    1
    14     5     6    1
    15     5    11    1
    16     5    17    1
    17     6    12    1
    18     6    18    1
    19     6    19    1
    20     7    20    1
    21     8    21    1
    22     9    22    1
    23    10    23    1
    24    12    24    1
