3VB
  CCTOOLS-0919241028

 18 17  0  0  1  0  0  0  0  0999 V2000
    3.0630   -0.0370   -0.3720 O   0  0  0  0  0
    1.8130    0.6450   -0.2550 C   0  0  0  0  0
    0.6700   -0.3700   -0.3170 C   0  0  0  0  0
    0.7370   -1.2340    0.8190 O   0  0  0  0  0
   -0.6700    0.3700   -0.3170 C   0  0  0  0  0
   -0.7370    1.2340    0.8190 O   0  0  0  0  0
   -1.8130   -0.6450   -0.2550 C   0  0  0  0  0
   -3.0630    0.0370   -0.3720 O   0  0  0  0  0
    3.8340    0.5450   -0.3400 H   0  0  0  0  0
    1.7760    1.1750    0.6970 H   0  0  0  0  0
    1.7100    1.3590   -1.0720 H   0  0  0  0  0
    0.7580   -0.9610   -1.2290 H   0  0  0  0  0
    0.6640   -0.7750    1.6670 H   0  0  0  0  0
   -0.7580    0.9610   -1.2290 H   0  0  0  0  0
   -0.6640    0.7750    1.6670 H   0  0  0  0  0
   -1.7100   -1.3590   -1.0720 H   0  0  0  0  0
   -1.7760   -1.1750    0.6970 H   0  0  0  0  0
   -3.8340   -0.5450   -0.3400 H   0  0  0  0  0
  1  2  1  0  0  0
  1  9  1  0  0  0
  2 10  1  0  0  0
  2 11  1  0  0  0
  3  2  1  0  0  0
  3  4  1  0  0  0
  3 12  1  0  0  0
  4 13  1  0  0  0
  5  3  1  0  0  0
  5 14  1  0  0  0
  6  5  1  0  0  0
  6 15  1  0  0  0
  7  5  1  0  0  0
  7 16  1  0  0  0
  7 17  1  0  0  0
  8  7  1  0  0  0
  8 18  1  0  0  0
M  END
$$$$
