AHR
  CCTOOLS-1004241125

 20 20  0  0  1  0  0  0  0  0999 V2000
   -0.6300   -0.0370    3.2190 O   0  0  0  0  0
    0.3690   -0.4040    2.2670 C   0  0  0  0  0
    0.0800    0.2860    0.9330 C   0  0  0  0  0
   -1.1780   -0.1580    0.4030 O   0  0  0  0  0
    1.1350   -0.1260   -0.1250 C   0  0  0  0  0
    2.2880    0.7150   -0.0640 O   0  0  0  0  0
    0.3390    0.1080   -1.4390 C   0  0  0  0  0
    0.8040   -0.7510   -2.4810 O   0  0  0  0  0
   -1.1000   -0.2610   -1.0220 C   0  0  0  0  0
   -2.0280    0.6420   -1.6250 O   0  0  0  0  0
   -0.4110   -0.4930    4.0440 H   0  0  0  0  0
    1.3490   -0.0950    2.6310 H   0  0  0  0  0
    0.3580   -1.4850    2.1260 H   0  0  0  0  0
    0.0760    1.3680    1.0610 H   0  0  0  0  0
    1.4110   -1.1740   -0.0140 H   0  0  0  0  0
    2.8480    0.4760   -0.8150 H   0  0  0  0  0
    0.3980    1.1530   -1.7450 H   0  0  0  0  0
    0.2150   -0.6190   -3.2360 H   0  0  0  0  0
   -1.3240   -1.2820   -1.3320 H   0  0  0  0  0
   -2.9100    0.3740   -1.3310 H   0  0  0  0  0
  1  2  1  0  0  0
  1 11  1  0  0  0
  2  3  1  0  0  0
  2 12  1  0  0  0
  2 13  1  0  0  0
  3  4  1  0  0  0
  3  5  1  0  0  0
  3 14  1  0  0  0
  4  9  1  0  0  0
  5  6  1  0  0  0
  5  7  1  0  0  0
  5 15  1  0  0  0
  6 16  1  0  0  0
  7  8  1  0  0  0
  7  9  1  0  0  0
  7 17  1  0  0  0
  8 18  1  0  0  0
  9 10  1  0  0  0
  9 19  1  0  0  0
 10 20  1  0  0  0
M  END
$$$$
