ALL
  CCTOOLS-0919241029

 24 24  0  0  1  0  0  0  0  0999 V2000
    0.9810    1.1410   -0.2240 C   0  0  0  0  0
    1.6500   -0.0220    0.5130 C   0  0  0  0  0
    0.8920   -1.3160    0.2040 C   0  0  0  0  0
   -0.5770   -1.1430    0.6040 C   0  0  0  0  0
   -1.1600    0.0640   -0.1380 C   0  0  0  0  0
   -2.6090    0.2800    0.3010 C   0  0  0  0  0
    1.6500    2.3610    0.1040 O   0  0  0  0  0
    3.0060   -0.1470    0.0780 O   0  0  0  0  0
    0.9770   -1.5980   -1.1940 O   0  0  0  0  0
   -1.3100   -2.3180    0.2530 O   0  0  0  0  0
   -0.3900    1.2270    0.1700 O   0  0  0  0  0
   -3.1900    1.3320   -0.4740 O   0  0  0  0  0
    1.0410    0.9710   -1.2990 H   0  0  0  0  0
    1.6270    0.1660    1.5870 H   0  0  0  0  0
    1.3280   -2.1390    0.7700 H   0  0  0  0  0
   -0.6450   -0.9770    1.6790 H   0  0  0  0  0
   -1.1290   -0.1200   -1.2120 H   0  0  0  0  0
   -3.1760   -0.6380    0.1500 H   0  0  0  0  0
   -2.6330    0.5520    1.3570 H   0  0  0  0  0
    1.2780    3.1410   -0.3290 H   0  0  0  0  0
    3.5440    0.6390    0.2380 H   0  0  0  0  0
    1.8800   -1.7140   -1.5180 H   0  0  0  0  0
   -0.9910   -3.1230    0.6830 H   0  0  0  0  0
   -4.1100    1.5240   -0.2490 H   0  0  0  0  0
  1  2  1  0  0  0
  1  7  1  0  0  0
  1 11  1  0  0  0
  1 13  1  0  0  0
  2  3  1  0  0  0
  2  8  1  0  0  0
  2 14  1  0  0  0
  3  4  1  0  0  0
  3  9  1  0  0  0
  3 15  1  0  0  0
  4  5  1  0  0  0
  4 10  1  0  0  0
  4 16  1  0  0  0
  5  6  1  0  0  0
  5 11  1  0  0  0
  5 17  1  0  0  0
  6 12  1  0  0  0
  6 18  1  0  0  0
  6 19  1  0  0  0
  7 20  1  0  0  0
  8 21  1  0  0  0
  9 22  1  0  0  0
 10 23  1  0  0  0
 12 24  1  0  0  0
M  END
$$$$
