@<TRIPOS>MOLECULE
ARA
 20 20 0 0 0
SMALL
GASTEIGER

@<TRIPOS>ATOM
      1 C           0.3160   -0.2530    1.3560 C.3     1  UNL1        0.1850
      2 C          -0.8170    0.2170    0.4430 C.3     1  UNL1        0.1339
      3 C          -0.7160   -0.5170   -0.9000 C.3     1  UNL1        0.1137
      4 C           0.6970   -0.3210   -1.4580 C.3     1  UNL1        0.1069
      5 C           1.7160   -0.7510   -0.4010 C.3     1  UNL1        0.0792
      6 O           0.2100    0.4030    2.6210 O.3     1  UNL1       -0.3649
      7 O          -2.0760   -0.0730    1.0550 O.3     1  UNL1       -0.3841
      8 O          -1.6770    0.0180   -1.8130 O.3     1  UNL1       -0.3864
      9 O           0.8960    1.0560   -1.7820 O.3     1  UNL1       -0.3869
     10 O           1.5750    0.0580    0.7640 O.3     1  UNL1       -0.3462
     11 H           0.2410   -1.3310    1.5010 H       1  UNL1        0.0935
     12 H          -0.7310    1.2910    0.2780 H       1  UNL1        0.0671
     13 H          -0.9070   -1.5800   -0.7510 H       1  UNL1        0.0647
     14 H           0.8230   -0.9280   -2.3540 H       1  UNL1        0.0643
     15 H           1.5480   -1.7950   -0.1390 H       1  UNL1        0.0587
     16 H           2.7240   -0.6370   -0.8010 H       1  UNL1        0.0587
     17 H           0.9380    0.0770    3.1670 H       1  UNL1        0.2126
     18 H          -2.0940    0.4020    1.8960 H       1  UNL1        0.2101
     19 H          -1.5780   -0.4710   -2.6410 H       1  UNL1        0.2100
     20 H           1.7960    1.1350   -2.1260 H       1  UNL1        0.2100
@<TRIPOS>BOND
     1     1     2    1
     2     1     6    1
     3     1    10    1
     4     1    11    1
     5     2     3    1
     6     2     7    1
     7     2    12    1
     8     3     4    1
     9     3     8    1
    10     3    13    1
    11     4     5    1
    12     4     9    1
    13     4    14    1
    14     5    10    1
    15     5    15    1
    16     5    16    1
    17     6    17    1
    18     7    18    1
    19     8    19    1
    20     9    20    1
