@<TRIPOS>MOLECULE
BDR
 20 20 0 0 0
SMALL
GASTEIGER

@<TRIPOS>ATOM
      1 C           0.2890   -0.3150    0.9860 C.3     1  UNL1        0.1131
      2 O          -1.0690   -0.3370    0.5160 O.3     1  UNL1       -0.3407
      3 C          -1.0150   -0.3880   -0.9250 C.3     1  UNL1        0.1854
      4 O          -2.2440    0.0720   -1.4910 O.3     1  UNL1       -0.3649
      5 C           0.1470    0.5730   -1.2790 C.3     1  UNL1        0.1339
      6 O           0.7180    0.2380   -2.5450 O.3     1  UNL1       -0.3841
      7 C           1.1530    0.3020   -0.1300 C.3     1  UNL1        0.1141
      8 O           2.1630   -0.6150   -0.5550 O.3     1  UNL1       -0.3864
      9 C           0.3870    0.5360    2.2520 C.3     1  UNL1        0.0730
     10 O          -0.4220   -0.0390    3.2790 O.3     1  UNL1       -0.3924
     11 H           0.6240   -1.3310    1.1950 H       1  UNL1        0.0647
     12 H          -0.7930   -1.4000   -1.2650 H       1  UNL1        0.0935
     13 H          -2.9370   -0.5250   -1.1800 H       1  UNL1        0.2126
     14 H          -0.1880    1.6090   -1.2670 H       1  UNL1        0.0671
     15 H           0.0170    0.3390   -3.2030 H       1  UNL1        0.2101
     16 H           1.6040    1.2340    0.2090 H       1  UNL1        0.0648
     17 H           2.6290   -0.1960   -1.2910 H       1  UNL1        0.2100
     18 H           0.0390    1.5470    2.0390 H       1  UNL1        0.0584
     19 H           1.4250    0.5730    2.5860 H       1  UNL1        0.0584
     20 H          -0.3310    0.5260    4.0570 H       1  UNL1        0.2095
@<TRIPOS>BOND
     1     1     2    1
     2     1     7    1
     3     1     9    1
     4     1    11    1
     5     2     3    1
     6     3     4    1
     7     3     5    1
     8     3    12    1
     9     4    13    1
    10     5     6    1
    11     5     7    1
    12     5    14    1
    13     6    15    1
    14     7     8    1
    15     7    16    1
    16     8    17    1
    17     9    10    1
    18     9    18    1
    19     9    19    1
    20    10    20    1
