BDR
  CCTOOLS-0919241033

 20 20  0  0  1  0  0  0  0  0999 V2000
    0.2890   -0.3150    0.9860 C   0  0  0  0  0
   -1.0690   -0.3370    0.5160 O   0  0  0  0  0
   -1.0150   -0.3880   -0.9250 C   0  0  0  0  0
   -2.2440    0.0720   -1.4910 O   0  0  0  0  0
    0.1470    0.5730   -1.2790 C   0  0  0  0  0
    0.7180    0.2380   -2.5450 O   0  0  0  0  0
    1.1530    0.3020   -0.1300 C   0  0  0  0  0
    2.1630   -0.6150   -0.5550 O   0  0  0  0  0
    0.3870    0.5360    2.2520 C   0  0  0  0  0
   -0.4220   -0.0390    3.2790 O   0  0  0  0  0
    0.6240   -1.3310    1.1950 H   0  0  0  0  0
   -0.7930   -1.4000   -1.2650 H   0  0  0  0  0
   -2.9370   -0.5250   -1.1800 H   0  0  0  0  0
   -0.1880    1.6090   -1.2670 H   0  0  0  0  0
    0.0170    0.3390   -3.2030 H   0  0  0  0  0
    1.6040    1.2340    0.2090 H   0  0  0  0  0
    2.6290   -0.1960   -1.2910 H   0  0  0  0  0
    0.0390    1.5470    2.0390 H   0  0  0  0  0
    1.4250    0.5730    2.5860 H   0  0  0  0  0
   -0.3310    0.5260    4.0570 H   0  0  0  0  0
  1  2  1  0  0  0
  1  7  1  0  0  0
  1  9  1  0  0  0
  1 11  1  0  0  0
  2  3  1  0  0  0
  3  4  1  0  0  0
  3  5  1  0  0  0
  3 12  1  0  0  0
  4 13  1  0  0  0
  5  6  1  0  0  0
  5  7  1  0  0  0
  5 14  1  0  0  0
  6 15  1  0  0  0
  7  8  1  0  0  0
  7 16  1  0  0  0
  8 17  1  0  0  0
  9 10  1  0  0  0
  9 18  1  0  0  0
  9 19  1  0  0  0
 10 20  1  0  0  0
M  END
$$$$
