@<TRIPOS>MOLECULE
BGC
 24 24 0 0 0
SMALL
GASTEIGER

@<TRIPOS>ATOM
      1 C          -1.5990    0.2730   -0.2280 C.3     1  UNL1        0.1339
      2 C          -1.0320   -1.0690    0.2440 C.3     1  UNL1        0.1141
      3 C           0.4060   -1.2100   -0.2650 C.3     1  UNL1        0.1119
      4 C           1.2340   -0.0220    0.2320 C.3     1  UNL1        0.1130
      5 C           2.6570   -0.1240   -0.3220 C.3     1  UNL1        0.0730
      6 C          -0.6940    1.4040    0.2690 C.3     1  UNL1        0.1854
      7 O          -1.1860    2.6550   -0.2140 O.3     1  UNL1       -0.3649
      8 O          -2.9150    0.4480    0.3020 O.3     1  UNL1       -0.3841
      9 O          -1.8290   -2.1350   -0.2760 O.3     1  UNL1       -0.3864
     10 O           0.9710   -2.4260    0.2290 O.3     1  UNL1       -0.3865
     11 O           0.6350    1.1950   -0.2150 O.3     1  UNL1       -0.3407
     12 O           3.4600    0.9180    0.2350 O.3     1  UNL1       -0.3924
     13 H          -1.6390    0.2900   -1.3170 H       1  UNL1        0.0671
     14 H          -1.0380   -1.1050    1.3330 H       1  UNL1        0.0648
     15 H           0.4070   -1.2230   -1.3550 H       1  UNL1        0.0647
     16 H           1.2660   -0.0330    1.3220 H       1  UNL1        0.0647
     17 H           3.0820   -1.0920   -0.0560 H       1  UNL1        0.0584
     18 H           2.6320   -0.0240   -1.4070 H       1  UNL1        0.0584
     19 H          -0.6870    1.4120    1.3590 H       1  UNL1        0.0935
     20 H          -0.6600    3.4180    0.0620 H       1  UNL1        0.2126
     21 H          -3.3360    1.2790    0.0430 H       1  UNL1        0.2101
     22 H          -2.7550   -2.1040    0.0010 H       1  UNL1        0.2100
     23 H           0.4930   -3.2210   -0.0440 H       1  UNL1        0.2100
     24 H           4.3770    0.9150   -0.0720 H       1  UNL1        0.2095
@<TRIPOS>BOND
     1     1     2    1
     2     1     6    1
     3     1     8    1
     4     1    13    1
     5     2     3    1
     6     2     9    1
     7     2    14    1
     8     3     4    1
     9     3    10    1
    10     3    15    1
    11     4     5    1
    12     4    11    1
    13     4    16    1
    14     5    12    1
    15     5    17    1
    16     5    18    1
    17     6     7    1
    18     6    11    1
    19     6    19    1
    20     7    20    1
    21     8    21    1
    22     9    22    1
    23    10    23    1
    24    12    24    1
