@<TRIPOS>MOLECULE
FRU
 24 24 0 0 0
SMALL
GASTEIGER

@<TRIPOS>ATOM
      1 C           0.7910    1.0550   -1.7760 C.3     1  UNL1        0.1006
      2 C           0.1440   -0.1490   -1.0900 C.3     1  UNL1        0.2205
      3 C          -1.3040    0.1880   -0.6890 C.3     1  UNL1        0.1392
      4 C          -1.3070    0.0810    0.8570 C.3     1  UNL1        0.1144
      5 C           0.1980    0.2300    1.1930 C.3     1  UNL1        0.1134
      6 C           0.5180   -0.4270    2.5360 C.3     1  UNL1        0.0730
      7 O           2.1380    0.7350   -2.1300 O.3     1  UNL1       -0.3896
      8 O           0.1540   -1.2730   -1.9720 O.3     1  UNL1       -0.3608
      9 O          -2.2150   -0.7520   -1.2610 O.3     1  UNL1       -0.3837
     10 O          -2.0720    1.1370    1.4400 O.3     1  UNL1       -0.3864
     11 O           0.8580   -0.4670    0.1150 O.3     1  UNL1       -0.3364
     12 O           1.9190   -0.3190    2.7980 O.3     1  UNL1       -0.3924
     13 H           0.2290    1.3070   -2.6750 H       1  UNL1        0.0612
     14 H           0.7870    1.9060   -1.0950 H       1  UNL1        0.0612
     15 H          -1.5600    1.2020   -0.9980 H       1  UNL1        0.0675
     16 H          -1.6800   -0.8900    1.1790 H       1  UNL1        0.0648
     17 H           0.4870    1.2810    1.2030 H       1  UNL1        0.0647
     18 H           0.2350   -1.4790    2.5030 H       1  UNL1        0.0584
     19 H          -0.0370    0.0740    3.3280 H       1  UNL1        0.0584
     20 H           2.5080    1.5180   -2.5580 H       1  UNL1        0.2096
     21 H           1.0800   -1.4520   -2.1860 H       1  UNL1        0.2129
     22 H          -3.1010   -0.4910   -0.9770 H       1  UNL1        0.2101
     23 H          -2.0340    1.0130    2.3990 H       1  UNL1        0.2100
     24 H           2.0780   -0.7450    3.6510 H       1  UNL1        0.2095
@<TRIPOS>BOND
     1     1     2    1
     2     1     7    1
     3     1    13    1
     4     1    14    1
     5     2     3    1
     6     2     8    1
     7     2    11    1
     8     3     4    1
     9     3     9    1
    10     3    15    1
    11     4     5    1
    12     4    10    1
    13     4    16    1
    14     5     6    1
    15     5    11    1
    16     5    17    1
    17     6    12    1
    18     6    18    1
    19     6    19    1
    20     7    20    1
    21     8    21    1
    22     9    22    1
    23    10    23    1
    24    12    24    1
