FRU
  CCTOOLS-0919241037

 24 24  0  0  1  0  0  0  0  0999 V2000
    0.7910    1.0550   -1.7760 C   0  0  0  0  0
    0.1440   -0.1490   -1.0900 C   0  0  0  0  0
   -1.3040    0.1880   -0.6890 C   0  0  0  0  0
   -1.3070    0.0810    0.8570 C   0  0  0  0  0
    0.1980    0.2300    1.1930 C   0  0  0  0  0
    0.5180   -0.4270    2.5360 C   0  0  0  0  0
    2.1380    0.7350   -2.1300 O   0  0  0  0  0
    0.1540   -1.2730   -1.9720 O   0  0  0  0  0
   -2.2150   -0.7520   -1.2610 O   0  0  0  0  0
   -2.0720    1.1370    1.4400 O   0  0  0  0  0
    0.8580   -0.4670    0.1150 O   0  0  0  0  0
    1.9190   -0.3190    2.7980 O   0  0  0  0  0
    0.2290    1.3070   -2.6750 H   0  0  0  0  0
    0.7870    1.9060   -1.0950 H   0  0  0  0  0
   -1.5600    1.2020   -0.9980 H   0  0  0  0  0
   -1.6800   -0.8900    1.1790 H   0  0  0  0  0
    0.4870    1.2810    1.2030 H   0  0  0  0  0
    0.2350   -1.4790    2.5030 H   0  0  0  0  0
   -0.0370    0.0740    3.3280 H   0  0  0  0  0
    2.5080    1.5180   -2.5580 H   0  0  0  0  0
    1.0800   -1.4520   -2.1860 H   0  0  0  0  0
   -3.1010   -0.4910   -0.9770 H   0  0  0  0  0
   -2.0340    1.0130    2.3990 H   0  0  0  0  0
    2.0780   -0.7450    3.6510 H   0  0  0  0  0
  1  2  1  0  0  0
  1  7  1  0  0  0
  1 13  1  0  0  0
  1 14  1  0  0  0
  2  3  1  0  0  0
  2  8  1  0  0  0
  2 11  1  0  0  0
  3  4  1  0  0  0
  3  9  1  0  0  0
  3 15  1  0  0  0
  4  5  1  0  0  0
  4 10  1  0  0  0
  4 16  1  0  0  0
  5  6  1  0  0  0
  5 11  1  0  0  0
  5 17  1  0  0  0
  6 12  1  0  0  0
  6 18  1  0  0  0
  6 19  1  0  0  0
  7 20  1  0  0  0
  8 21  1  0  0  0
  9 22  1  0  0  0
 10 23  1  0  0  0
 12 24  1  0  0  0
M  END
$$$$
