@<TRIPOS>MOLECULE
GZL
 24 24 0 0 0
SMALL
GASTEIGER

@<TRIPOS>ATOM
      1 C           2.5930    0.7880    0.0860 C.3     1  UNL1        0.0727
      2 C           1.5790   -0.2190   -0.4610 C.3     1  UNL1        0.1069
      3 C           0.1930    0.4260   -0.5040 C.3     1  UNL1        0.1180
      4 C          -0.8570   -0.6170   -0.9340 C.3     1  UNL1        0.1144
      5 C          -1.8640   -0.6490    0.2420 C.3     1  UNL1        0.1339
      6 O           3.9060    0.2270    0.0180 O.3     1  UNL1       -0.3924
      7 O           1.5440   -1.3680    0.3890 O.3     1  UNL1       -0.3869
      8 O          -0.1740    0.8860    0.8070 O.3     1  UNL1       -0.3403
      9 O          -1.5070   -0.2050   -2.1380 O.3     1  UNL1       -0.3864
     10 C          -1.6020    0.7150    0.9300 C.3     1  UNL1        0.1854
     11 O          -1.5770   -1.7310    1.1290 O.3     1  UNL1       -0.3841
     12 O          -2.2950    1.7640    0.2490 O.3     1  UNL1       -0.3649
     13 H           2.5570    1.7000   -0.5100 H       1  UNL1        0.0584
     14 H           2.3510    1.0210    1.1230 H       1  UNL1        0.0584
     15 H           4.6010    0.8120    0.3490 H       1  UNL1        0.2095
     16 H           1.8720   -0.5200   -1.4670 H       1  UNL1        0.0643
     17 H           0.1940    1.2610   -1.2050 H       1  UNL1        0.0650
     18 H           1.2900   -1.1740    1.3020 H       1  UNL1        0.2100
     19 H          -0.3930   -1.5940   -1.0650 H       1  UNL1        0.0648
     20 H          -2.1780   -0.8250   -2.4550 H       1  UNL1        0.2100
     21 H          -2.8890   -0.7090   -0.1250 H       1  UNL1        0.0671
     22 H          -1.8960    0.6780    1.9790 H       1  UNL1        0.0935
     23 H          -2.1810   -1.7930    1.8820 H       1  UNL1        0.2101
     24 H          -2.1650    2.6390    0.6390 H       1  UNL1        0.2126
@<TRIPOS>BOND
     1     1     2    1
     2     1     6    1
     3     1    13    1
     4     1    14    1
     5     2     3    1
     6     2     7    1
     7     2    16    1
     8     3     4    1
     9     3     8    1
    10     3    17    1
    11     4     5    1
    12     4     9    1
    13     4    19    1
    14     5    10    1
    15     5    11    1
    16     5    21    1
    17     6    15    1
    18     7    18    1
    19     8    10    1
    20     9    20    1
    21    10    22    1
    22    10    12    1
    23    11    23    1
    24    12    24    1
