GZL
  CCTOOLS-0919241043

 24 24  0  0  1  0  0  0  0  0999 V2000
    2.5930    0.7880    0.0860 C   0  0  0  0  0
    1.5790   -0.2190   -0.4610 C   0  0  0  0  0
    0.1930    0.4260   -0.5040 C   0  0  0  0  0
   -0.8570   -0.6170   -0.9340 C   0  0  0  0  0
   -1.8640   -0.6490    0.2420 C   0  0  0  0  0
    3.9060    0.2270    0.0180 O   0  0  0  0  0
    1.5440   -1.3680    0.3890 O   0  0  0  0  0
   -0.1740    0.8860    0.8070 O   0  0  0  0  0
   -1.5070   -0.2050   -2.1380 O   0  0  0  0  0
   -1.6020    0.7150    0.9300 C   0  0  0  0  0
   -1.5770   -1.7310    1.1290 O   0  0  0  0  0
   -2.2950    1.7640    0.2490 O   0  0  0  0  0
    2.5570    1.7000   -0.5100 H   0  0  0  0  0
    2.3510    1.0210    1.1230 H   0  0  0  0  0
    4.6010    0.8120    0.3490 H   0  0  0  0  0
    1.8720   -0.5200   -1.4670 H   0  0  0  0  0
    0.1940    1.2610   -1.2050 H   0  0  0  0  0
    1.2900   -1.1740    1.3020 H   0  0  0  0  0
   -0.3930   -1.5940   -1.0650 H   0  0  0  0  0
   -2.1780   -0.8250   -2.4550 H   0  0  0  0  0
   -2.8890   -0.7090   -0.1250 H   0  0  0  0  0
   -1.8960    0.6780    1.9790 H   0  0  0  0  0
   -2.1810   -1.7930    1.8820 H   0  0  0  0  0
   -2.1650    2.6390    0.6390 H   0  0  0  0  0
  1  2  1  0  0  0
  1  6  1  0  0  0
  1 13  1  0  0  0
  1 14  1  0  0  0
  2  3  1  0  0  0
  2  7  1  0  0  0
  2 16  1  0  0  0
  3  4  1  0  0  0
  3  8  1  0  0  0
  3 17  1  0  0  0
  4  5  1  0  0  0
  4  9  1  0  0  0
  4 19  1  0  0  0
  5 10  1  0  0  0
  5 11  1  0  0  0
  5 21  1  0  0  0
  6 15  1  0  0  0
  7 18  1  0  0  0
  8 10  1  0  0  0
  9 20  1  0  0  0
 10 22  1  0  0  0
 10 12  1  0  0  0
 11 23  1  0  0  0
 12 24  1  0  0  0
M  END
$$$$
