@<TRIPOS>MOLECULE
HPA
 14 15 0 0 0
SMALL
GASTEIGER

@<TRIPOS>ATOM
      1 N           0.2030    0.0000    1.9990 N.ar    1  UNL1       -0.3116
      2 C           1.4920    0.0000    1.5740 C.ar    1  UNL1        0.0985
      3 N           1.8070    0.0000    0.3110 N.ar    1  UNL1       -0.2163
      4 C           0.8550    0.0000   -0.6440 C.ar    1  UNL1        0.1844
      5 C          -0.4890   -0.0050   -0.2660 C.ar    1  UNL1        0.1501
      6 C          -0.8100    0.0000    1.1040 C.ar    1  UNL1        0.2770
      7 O          -1.9720    0.0010    1.4750 O.2     1  UNL1       -0.2655
      8 N          -1.2190    0.0000   -1.4350 N.ar    1  UNL1       -0.3389
      9 C          -0.3350    0.0000   -2.4550 C.ar    1  UNL1        0.0963
     10 N           0.8840    0.0000   -1.9870 N.ar    1  UNL1       -0.2164
     11 H           0.0080    0.0000    2.9490 H       1  UNL1        0.1698
     12 H           2.2840    0.0000    2.3080 H       1  UNL1        0.1028
     13 H          -2.1860    0.0000   -1.5110 H       1  UNL1        0.1670
     14 H          -0.5970    0.0010   -3.5020 H       1  UNL1        0.1027
@<TRIPOS>BOND
     1     1     2   ar
     2     1     6   ar
     3     1    11    1
     4     2     3   ar
     5     2    12    1
     6     3     4   ar
     7     4     5   ar
     8     4    10   ar
     9     5     6   ar
    10     5     8   ar
    11     6     7    2
    12     8     9   ar
    13     8    13    1
    14     9    10   ar
    15     9    14    1
