@<TRIPOS>MOLECULE
INS
 24 24 0 0 0
SMALL
GASTEIGER

@<TRIPOS>ATOM
      1 C           1.2120   -0.8370    0.5550 C.3     1  UNL1        0.1118
      2 C          -0.0740   -1.5710    0.1690 C.3     1  UNL1        0.1118
      3 C          -1.2830   -0.7200    0.5610 C.3     1  UNL1        0.1118
      4 C          -1.2220    0.6220   -0.1720 C.3     1  UNL1        0.1118
      5 C           0.0640    1.3560    0.2140 C.3     1  UNL1        0.1118
      6 C           1.2740    0.5040   -0.1770 C.3     1  UNL1        0.1118
      7 O           2.3420   -1.6320    0.1900 O.3     1  UNL1       -0.3865
      8 O          -0.0880   -1.7970   -1.2410 O.3     1  UNL1       -0.3865
      9 O          -2.4840   -1.4050    0.2010 O.3     1  UNL1       -0.3865
     10 O          -2.3520    1.4170    0.1940 O.3     1  UNL1       -0.3865
     11 O           0.1220    2.6090   -0.4700 O.3     1  UNL1       -0.3865
     12 O           2.4750    1.1890    0.1830 O.3     1  UNL1       -0.3865
     13 H           1.2230   -0.6640    1.6320 H       1  UNL1        0.0647
     14 H          -0.1170   -2.5260    0.6920 H       1  UNL1        0.0647
     15 H          -1.2730   -0.5470    1.6370 H       1  UNL1        0.0647
     16 H          -1.2320    0.4490   -1.2480 H       1  UNL1        0.0647
     17 H           0.0750    1.5290    1.2900 H       1  UNL1        0.0647
     18 H           1.2630    0.3310   -1.2530 H       1  UNL1        0.0647
     19 H           3.1940   -1.2280    0.4050 H       1  UNL1        0.2100
     20 H          -0.8760   -2.2590   -1.5580 H       1  UNL1        0.2100
     21 H          -3.2930   -0.9220    0.4200 H       1  UNL1        0.2100
     22 H          -2.3780    2.2840   -0.2340 H       1  UNL1        0.2100
     23 H           0.9130    3.1290   -0.2730 H       1  UNL1        0.2100
     24 H           2.5810    2.0500   -0.2450 H       1  UNL1        0.2100
@<TRIPOS>BOND
     1     1     2    1
     2     1     6    1
     3     1     7    1
     4     1    13    1
     5     2     3    1
     6     2     8    1
     7     2    14    1
     8     3     4    1
     9     3     9    1
    10     3    15    1
    11     4     5    1
    12     4    10    1
    13     4    16    1
    14     5     6    1
    15     5    11    1
    16     5    17    1
    17     6    12    1
    18     6    18    1
    19     7    19    1
    20     8    20    1
    21     9    21    1
    22    10    22    1
    23    11    23    1
    24    12    24    1
