INS
  CCTOOLS-1004241120

 24 24  0  0  0  0  0  0  0  0999 V2000
    1.2120   -0.8370    0.5550 C   0  0  0  0  0
   -0.0740   -1.5710    0.1690 C   0  0  0  0  0
   -1.2830   -0.7200    0.5610 C   0  0  0  0  0
   -1.2220    0.6220   -0.1720 C   0  0  0  0  0
    0.0640    1.3560    0.2140 C   0  0  0  0  0
    1.2740    0.5040   -0.1770 C   0  0  0  0  0
    2.3420   -1.6320    0.1900 O   0  0  0  0  0
   -0.0880   -1.7970   -1.2410 O   0  0  0  0  0
   -2.4840   -1.4050    0.2010 O   0  0  0  0  0
   -2.3520    1.4170    0.1940 O   0  0  0  0  0
    0.1220    2.6090   -0.4700 O   0  0  0  0  0
    2.4750    1.1890    0.1830 O   0  0  0  0  0
    1.2230   -0.6640    1.6320 H   0  0  0  0  0
   -0.1170   -2.5260    0.6920 H   0  0  0  0  0
   -1.2730   -0.5470    1.6370 H   0  0  0  0  0
   -1.2320    0.4490   -1.2480 H   0  0  0  0  0
    0.0750    1.5290    1.2900 H   0  0  0  0  0
    1.2630    0.3310   -1.2530 H   0  0  0  0  0
    3.1940   -1.2280    0.4050 H   0  0  0  0  0
   -0.8760   -2.2590   -1.5580 H   0  0  0  0  0
   -3.2930   -0.9220    0.4200 H   0  0  0  0  0
   -2.3780    2.2840   -0.2340 H   0  0  0  0  0
    0.9130    3.1290   -0.2730 H   0  0  0  0  0
    2.5810    2.0500   -0.2450 H   0  0  0  0  0
  1  2  1  0  0  0
  1  6  1  0  0  0
  1  7  1  0  0  0
  1 13  1  0  0  0
  2  3  1  0  0  0
  2  8  1  0  0  0
  2 14  1  0  0  0
  3  4  1  0  0  0
  3  9  1  0  0  0
  3 15  1  0  0  0
  4  5  1  0  0  0
  4 10  1  0  0  0
  4 16  1  0  0  0
  5  6  1  0  0  0
  5 11  1  0  0  0
  5 17  1  0  0  0
  6 12  1  0  0  0
  6 18  1  0  0  0
  7 19  1  0  0  0
  8 20  1  0  0  0
  9 21  1  0  0  0
 10 22  1  0  0  0
 11 23  1  0  0  0
 12 24  1  0  0  0
M  END
$$$$
