@<TRIPOS>MOLECULE
PAV
 20 20 0 0 0
SMALL
GASTEIGER

@<TRIPOS>ATOM
      1 O          -0.2630   -1.3950    1.5290 O.3     1  UNL1       -0.3607
      2 C          -0.2000   -0.0420    1.0720 C.3     1  UNL1        0.2222
      3 C           0.4090    0.8450    2.1590 C.3     1  UNL1       -0.0053
      4 O          -1.5190    0.4240    0.7430 O.3     1  UNL1       -0.3418
      5 C          -1.7130    0.1810   -0.6660 C.3     1  UNL1        0.0823
      6 C          -0.3410    0.5480   -1.2870 C.3     1  UNL1        0.1371
      7 O          -0.1430   -0.1370   -2.5260 O.3     1  UNL1       -0.3840
      8 C           0.6500    0.0380   -0.2090 C.3     1  UNL1        0.2488
      9 O           1.7230    0.9660   -0.0380 O.3     1  UNL1       -0.3588
     10 O           1.1540   -1.2510   -0.5620 O.3     1  UNL1       -0.3588
     11 H          -0.8080   -1.3950    2.3280 H       1  UNL1        0.2129
     12 H          -0.2000    0.7870    3.0600 H       1  UNL1        0.0283
     13 H           1.4200    0.5040    2.3810 H       1  UNL1        0.0283
     14 H           0.4420    1.8770    1.8080 H       1  UNL1        0.0283
     15 H          -1.9480   -0.8670   -0.8460 H       1  UNL1        0.0588
     16 H          -2.4980    0.8250   -1.0620 H       1  UNL1        0.0588
     17 H          -0.2510    1.6250   -1.4230 H       1  UNL1        0.0672
     18 H          -0.8450    0.1540   -3.1220 H       1  UNL1        0.2101
     19 H           2.1820    1.0230   -0.8880 H       1  UNL1        0.2130
     20 H           1.6240   -1.1470   -1.4010 H       1  UNL1        0.2130
@<TRIPOS>BOND
     1     1     2    1
     2     1    11    1
     3     2     3    1
     4     2     4    1
     5     2     8    1
     6     3    12    1
     7     3    13    1
     8     3    14    1
     9     4     5    1
    10     5     6    1
    11     5    15    1
    12     5    16    1
    13     6     7    1
    14     6     8    1
    15     6    17    1
    16     7    18    1
    17     8     9    1
    18     8    10    1
    19     9    19    1
    20    10    20    1
