PAV
  CCTOOLS-0919241031

 20 20  0  0  1  0  0  0  0  0999 V2000
   -0.2630   -1.3950    1.5290 O   0  0  0  0  0
   -0.2000   -0.0420    1.0720 C   0  0  0  0  0
    0.4090    0.8450    2.1590 C   0  0  0  0  0
   -1.5190    0.4240    0.7430 O   0  0  0  0  0
   -1.7130    0.1810   -0.6660 C   0  0  0  0  0
   -0.3410    0.5480   -1.2870 C   0  0  0  0  0
   -0.1430   -0.1370   -2.5260 O   0  0  0  0  0
    0.6500    0.0380   -0.2090 C   0  0  0  0  0
    1.7230    0.9660   -0.0380 O   0  0  0  0  0
    1.1540   -1.2510   -0.5620 O   0  0  0  0  0
   -0.8080   -1.3950    2.3280 H   0  0  0  0  0
   -0.2000    0.7870    3.0600 H   0  0  0  0  0
    1.4200    0.5040    2.3810 H   0  0  0  0  0
    0.4420    1.8770    1.8080 H   0  0  0  0  0
   -1.9480   -0.8670   -0.8460 H   0  0  0  0  0
   -2.4980    0.8250   -1.0620 H   0  0  0  0  0
   -0.2510    1.6250   -1.4230 H   0  0  0  0  0
   -0.8450    0.1540   -3.1220 H   0  0  0  0  0
    2.1820    1.0230   -0.8880 H   0  0  0  0  0
    1.6240   -1.1470   -1.4010 H   0  0  0  0  0
  1  2  1  0  0  0
  1 11  1  0  0  0
  2  3  1  0  0  0
  2  4  1  0  0  0
  2  8  1  0  0  0
  3 12  1  0  0  0
  3 13  1  0  0  0
  3 14  1  0  0  0
  4  5  1  0  0  0
  5  6  1  0  0  0
  5 15  1  0  0  0
  5 16  1  0  0  0
  6  7  1  0  0  0
  6  8  1  0  0  0
  6 17  1  0  0  0
  7 18  1  0  0  0
  8  9  1  0  0  0
  8 10  1  0  0  0
  9 19  1  0  0  0
 10 20  1  0  0  0
M  END
$$$$
