@<TRIPOS>MOLECULE
RIP
 20 20 0 0 0
SMALL
GASTEIGER

@<TRIPOS>ATOM
      1 C           0.5380    0.2920   -1.2190 C.3     1  UNL1        0.1850
      2 C          -0.6510   -0.5750   -0.8030 C.3     1  UNL1        0.1339
      3 C          -0.9600   -0.3260    0.6770 C.3     1  UNL1        0.1137
      4 C           0.3220   -0.5410    1.4890 C.3     1  UNL1        0.1069
      5 C           1.4380    0.3240    0.8990 C.3     1  UNL1        0.0792
      6 O           0.8120    0.0860   -2.6060 O.3     1  UNL1       -0.3649
      7 O          -1.7910   -0.2350   -1.5950 O.3     1  UNL1       -0.3841
      8 O          -1.4190    1.0150    0.8520 O.3     1  UNL1       -0.3864
      9 O           0.0950   -0.1670    2.8490 O.3     1  UNL1       -0.3869
     10 O           1.6860   -0.0610   -0.4500 O.3     1  UNL1       -0.3462
     11 H           0.2980    1.3420   -1.0490 H       1  UNL1        0.0935
     12 H          -0.4050   -1.6270   -0.9500 H       1  UNL1        0.0671
     13 H          -1.7290   -1.0220    1.0130 H       1  UNL1        0.0647
     14 H           0.6110   -1.5910    1.4420 H       1  UNL1        0.0643
     15 H           1.1380    1.3710    0.9270 H       1  UNL1        0.0587
     16 H           2.3470    0.1920    1.4860 H       1  UNL1        0.0587
     17 H           1.5630    0.6530   -2.8290 H       1  UNL1        0.2126
     18 H          -1.5510   -0.4020   -2.5160 H       1  UNL1        0.2101
     19 H          -1.6010    1.1280    1.7950 H       1  UNL1        0.2100
     20 H           0.9260   -0.3150    3.3220 H       1  UNL1        0.2100
@<TRIPOS>BOND
     1     1     2    1
     2     1     6    1
     3     1    10    1
     4     1    11    1
     5     2     3    1
     6     2     7    1
     7     2    12    1
     8     3     4    1
     9     3     8    1
    10     3    13    1
    11     4     5    1
    12     4     9    1
    13     4    14    1
    14     5    10    1
    15     5    15    1
    16     5    16    1
    17     6    17    1
    18     7    18    1
    19     8    19    1
    20     9    20    1
