RIP
  CCTOOLS-1004241127

 20 20  0  0  1  0  0  0  0  0999 V2000
    0.5380    0.2920   -1.2190 C   0  0  0  0  0
   -0.6510   -0.5750   -0.8030 C   0  0  0  0  0
   -0.9600   -0.3260    0.6770 C   0  0  0  0  0
    0.3220   -0.5410    1.4890 C   0  0  0  0  0
    1.4380    0.3240    0.8990 C   0  0  0  0  0
    0.8120    0.0860   -2.6060 O   0  0  0  0  0
   -1.7910   -0.2350   -1.5950 O   0  0  0  0  0
   -1.4190    1.0150    0.8520 O   0  0  0  0  0
    0.0950   -0.1670    2.8490 O   0  0  0  0  0
    1.6860   -0.0610   -0.4500 O   0  0  0  0  0
    0.2980    1.3420   -1.0490 H   0  0  0  0  0
   -0.4050   -1.6270   -0.9500 H   0  0  0  0  0
   -1.7290   -1.0220    1.0130 H   0  0  0  0  0
    0.6110   -1.5910    1.4420 H   0  0  0  0  0
    1.1380    1.3710    0.9270 H   0  0  0  0  0
    2.3470    0.1920    1.4860 H   0  0  0  0  0
    1.5630    0.6530   -2.8290 H   0  0  0  0  0
   -1.5510   -0.4020   -2.5160 H   0  0  0  0  0
   -1.6010    1.1280    1.7950 H   0  0  0  0  0
    0.9260   -0.3150    3.3220 H   0  0  0  0  0
  1  2  1  0  0  0
  1  6  1  0  0  0
  1 10  1  0  0  0
  1 11  1  0  0  0
  2  3  1  0  0  0
  2  7  1  0  0  0
  2 12  1  0  0  0
  3  4  1  0  0  0
  3  8  1  0  0  0
  3 13  1  0  0  0
  4  5  1  0  0  0
  4  9  1  0  0  0
  4 14  1  0  0  0
  5 10  1  0  0  0
  5 15  1  0  0  0
  5 16  1  0  0  0
  6 17  1  0  0  0
  7 18  1  0  0  0
  8 19  1  0  0  0
  9 20  1  0  0  0
M  END
$$$$
