@<TRIPOS>MOLECULE
WEB
 24 24 0 0 0
SMALL
GASTEIGER

@<TRIPOS>ATOM
      1 C          -2.4020    0.0190    0.5230 C.3     1  UNL1        0.1006
      2 O          -3.1970   -0.9660   -0.1400 O.3     1  UNL1       -0.3896
      3 C          -0.9550   -0.0820    0.0360 C.3     1  UNL1        0.2201
      4 O          -0.9110    0.1410   -1.3750 O.3     1  UNL1       -0.3609
      5 C          -0.1040    0.9740    0.7470 C.3     1  UNL1        0.1392
      6 O          -0.5790    2.2780    0.4080 O.3     1  UNL1       -0.3837
      7 C           1.3540    0.8280    0.2990 C.3     1  UNL1        0.1141
      8 O           1.4510    1.0810   -1.1040 O.3     1  UNL1       -0.3864
      9 C           1.8280   -0.5980    0.5960 C.3     1  UNL1        0.1070
     10 O           3.1630   -0.7680    0.1170 O.3     1  UNL1       -0.3869
     11 C           0.9010   -1.5930   -0.1080 C.3     1  UNL1        0.0795
     12 O          -0.4430   -1.3830    0.3300 O.3     1  UNL1       -0.3421
     13 H          -2.7930    1.0110    0.3000 H       1  UNL1        0.0612
     14 H          -2.4360   -0.1520    1.5990 H       1  UNL1        0.0612
     15 H          -4.1290   -0.9610    0.1210 H       1  UNL1        0.2096
     16 H          -1.4300   -0.4920   -1.8890 H       1  UNL1        0.2129
     17 H          -0.1690    0.8290    1.8250 H       1  UNL1        0.0675
     18 H          -0.0840    2.9970    0.8240 H       1  UNL1        0.2101
     19 H           1.9750    1.5390    0.8430 H       1  UNL1        0.0648
     20 H           2.3480    1.0060   -1.4560 H       1  UNL1        0.2100
     21 H           1.8020   -0.7740    1.6720 H       1  UNL1        0.0643
     22 H           3.5280   -1.6500    0.2720 H       1  UNL1        0.2100
     23 H           0.9600   -1.4430   -1.1870 H       1  UNL1        0.0587
     24 H           1.2080   -2.6100    0.1340 H       1  UNL1        0.0587
@<TRIPOS>BOND
     1     1     2    1
     2     1     3    1
     3     1    13    1
     4     1    14    1
     5     2    15    1
     6     3     5    1
     7     3    12    1
     8     4     3    1
     9     4    16    1
    10     5     7    1
    11     5    17    1
    12     6     5    1
    13     6    18    1
    14     7     9    1
    15     7    19    1
    16     8     7    1
    17     8    20    1
    18     9    10    1
    19     9    21    1
    20    10    22    1
    21    11     9    1
    22    11    23    1
    23    11    24    1
    24    12    11    1
