WEB
  CCTOOLS-0919241030

 24 24  0  0  1  0  0  0  0  0999 V2000
   -2.4020    0.0190    0.5230 C   0  0  0  0  0
   -3.1970   -0.9660   -0.1400 O   0  0  0  0  0
   -0.9550   -0.0820    0.0360 C   0  0  0  0  0
   -0.9110    0.1410   -1.3750 O   0  0  0  0  0
   -0.1040    0.9740    0.7470 C   0  0  0  0  0
   -0.5790    2.2780    0.4080 O   0  0  0  0  0
    1.3540    0.8280    0.2990 C   0  0  0  0  0
    1.4510    1.0810   -1.1040 O   0  0  0  0  0
    1.8280   -0.5980    0.5960 C   0  0  0  0  0
    3.1630   -0.7680    0.1170 O   0  0  0  0  0
    0.9010   -1.5930   -0.1080 C   0  0  0  0  0
   -0.4430   -1.3830    0.3300 O   0  0  0  0  0
   -2.7930    1.0110    0.3000 H   0  0  0  0  0
   -2.4360   -0.1520    1.5990 H   0  0  0  0  0
   -4.1290   -0.9610    0.1210 H   0  0  0  0  0
   -1.4300   -0.4920   -1.8890 H   0  0  0  0  0
   -0.1690    0.8290    1.8250 H   0  0  0  0  0
   -0.0840    2.9970    0.8240 H   0  0  0  0  0
    1.9750    1.5390    0.8430 H   0  0  0  0  0
    2.3480    1.0060   -1.4560 H   0  0  0  0  0
    1.8020   -0.7740    1.6720 H   0  0  0  0  0
    3.5280   -1.6500    0.2720 H   0  0  0  0  0
    0.9600   -1.4430   -1.1870 H   0  0  0  0  0
    1.2080   -2.6100    0.1340 H   0  0  0  0  0
  1  2  1  0  0  0
  1  3  1  0  0  0
  1 13  1  0  0  0
  1 14  1  0  0  0
  2 15  1  0  0  0
  3  5  1  0  0  0
  3 12  1  0  0  0
  4  3  1  0  0  0
  4 16  1  0  0  0
  5  7  1  0  0  0
  5 17  1  0  0  0
  6  5  1  0  0  0
  6 18  1  0  0  0
  7  9  1  0  0  0
  7 19  1  0  0  0
  8  7  1  0  0  0
  8 20  1  0  0  0
  9 10  1  0  0  0
  9 21  1  0  0  0
 10 22  1  0  0  0
 11  9  1  0  0  0
 11 23  1  0  0  0
 11 24  1  0  0  0
 12 11  1  0  0  0
M  END
$$$$
