@<TRIPOS>MOLECULE
X9X
 26 25 0 0 0
SMALL
GASTEIGER

@<TRIPOS>ATOM
      1 O           4.2960    0.1450   -0.2480 O.3     1  UNL1       -0.3924
      2 C           3.0790    0.5780    0.3640 C.3     1  UNL1        0.0727
      3 C           1.9000   -0.1750   -0.2550 C.3     1  UNL1        0.1065
      4 O           2.0060   -1.5650    0.0580 O.3     1  UNL1       -0.3869
      5 C           0.5900    0.3770    0.3090 C.3     1  UNL1        0.1114
      6 O           0.4840    1.7670   -0.0040 O.3     1  UNL1       -0.3865
      7 C          -0.5900   -0.3770   -0.3090 C.3     1  UNL1        0.1114
      8 O          -0.4840   -1.7670    0.0040 O.3     1  UNL1       -0.3865
      9 C          -1.9000    0.1750    0.2550 C.3     1  UNL1        0.1065
     10 O          -2.0060    1.5650   -0.0580 O.3     1  UNL1       -0.3869
     11 C          -3.0790   -0.5780   -0.3640 C.3     1  UNL1        0.0727
     12 O          -4.2960   -0.1450    0.2480 O.3     1  UNL1       -0.3924
     13 H           5.0870    0.5810    0.0960 H       1  UNL1        0.2095
     14 H           3.1180    0.3760    1.4340 H       1  UNL1        0.0584
     15 H           2.9520    1.6490    0.2010 H       1  UNL1        0.0584
     16 H           1.9130   -0.0440   -1.3370 H       1  UNL1        0.0643
     17 H           2.0010   -1.7560    1.0060 H       1  UNL1        0.2100
     18 H           0.5760    0.2460    1.3910 H       1  UNL1        0.0647
     19 H           0.4890    1.9580   -0.9520 H       1  UNL1        0.2100
     20 H          -0.5760   -0.2460   -1.3910 H       1  UNL1        0.0647
     21 H          -0.4890   -1.9580    0.9520 H       1  UNL1        0.2100
     22 H          -1.9130    0.0440    1.3370 H       1  UNL1        0.0643
     23 H          -2.0010    1.7560   -1.0060 H       1  UNL1        0.2100
     24 H          -3.1180   -0.3760   -1.4340 H       1  UNL1        0.0584
     25 H          -2.9520   -1.6490   -0.2010 H       1  UNL1        0.0584
     26 H          -5.0870   -0.5810   -0.0960 H       1  UNL1        0.2095
@<TRIPOS>BOND
     1     1     2    1
     2     1    13    1
     3     2     3    1
     4     2    14    1
     5     2    15    1
     6     3    16    1
     7     4     3    1
     8     4    17    1
     9     5     7    1
    10     5     3    1
    11     5     6    1
    12     5    18    1
    13     6    19    1
    14     7     8    1
    15     7    20    1
    16     8    21    1
    17     9    10    1
    18     9     7    1
    19     9    22    1
    20    10    23    1
    21    11     9    1
    22    11    24    1
    23    11    25    1
    24    12    11    1
    25    12    26    1
