X9X
  CCTOOLS-0919241034

 26 25  0  0  1  0  0  0  0  0999 V2000
    4.2960    0.1450   -0.2480 O   0  0  0  0  0
    3.0790    0.5780    0.3640 C   0  0  0  0  0
    1.9000   -0.1750   -0.2550 C   0  0  0  0  0
    2.0060   -1.5650    0.0580 O   0  0  0  0  0
    0.5900    0.3770    0.3090 C   0  0  0  0  0
    0.4840    1.7670   -0.0040 O   0  0  0  0  0
   -0.5900   -0.3770   -0.3090 C   0  0  0  0  0
   -0.4840   -1.7670    0.0040 O   0  0  0  0  0
   -1.9000    0.1750    0.2550 C   0  0  0  0  0
   -2.0060    1.5650   -0.0580 O   0  0  0  0  0
   -3.0790   -0.5780   -0.3640 C   0  0  0  0  0
   -4.2960   -0.1450    0.2480 O   0  0  0  0  0
    5.0870    0.5810    0.0960 H   0  0  0  0  0
    3.1180    0.3760    1.4340 H   0  0  0  0  0
    2.9520    1.6490    0.2010 H   0  0  0  0  0
    1.9130   -0.0440   -1.3370 H   0  0  0  0  0
    2.0010   -1.7560    1.0060 H   0  0  0  0  0
    0.5760    0.2460    1.3910 H   0  0  0  0  0
    0.4890    1.9580   -0.9520 H   0  0  0  0  0
   -0.5760   -0.2460   -1.3910 H   0  0  0  0  0
   -0.4890   -1.9580    0.9520 H   0  0  0  0  0
   -1.9130    0.0440    1.3370 H   0  0  0  0  0
   -2.0010    1.7560   -1.0060 H   0  0  0  0  0
   -3.1180   -0.3760   -1.4340 H   0  0  0  0  0
   -2.9520   -1.6490   -0.2010 H   0  0  0  0  0
   -5.0870   -0.5810   -0.0960 H   0  0  0  0  0
  1  2  1  0  0  0
  1 13  1  0  0  0
  2  3  1  0  0  0
  2 14  1  0  0  0
  2 15  1  0  0  0
  3 16  1  0  0  0
  4  3  1  0  0  0
  4 17  1  0  0  0
  5  7  1  0  0  0
  5  3  1  0  0  0
  5  6  1  0  0  0
  5 18  1  0  0  0
  6 19  1  0  0  0
  7  8  1  0  0  0
  7 20  1  0  0  0
  8 21  1  0  0  0
  9 10  1  0  0  0
  9  7  1  0  0  0
  9 22  1  0  0  0
 10 23  1  0  0  0
 11  9  1  0  0  0
 11 24  1  0  0  0
 11 25  1  0  0  0
 12 11  1  0  0  0
 12 26  1  0  0  0
M  END
$$$$
