@<TRIPOS>MOLECULE
XYP
 20 20 0 0 0
SMALL
GASTEIGER

@<TRIPOS>ATOM
      1 O           0.5010   -0.1300   -2.7460 O.3     1  UNL1       -0.3649
      2 C           0.5090    0.2530   -1.3700 C.3     1  UNL1        0.1850
      3 C          -0.7800   -0.2280   -0.7010 C.3     1  UNL1        0.1339
      4 C          -0.7790    0.2130    0.7660 C.3     1  UNL1        0.1137
      5 C           0.5190   -0.2690    1.4230 C.3     1  UNL1        0.1069
      6 C           1.7100    0.2150    0.5930 C.3     1  UNL1        0.0792
      7 O          -1.9070    0.3370   -1.3720 O.3     1  UNL1       -0.3841
      8 O          -1.9040   -0.3540    1.4390 O.3     1  UNL1       -0.3864
      9 O           0.6110    0.2600    2.7470 O.3     1  UNL1       -0.3869
     10 O           1.6370   -0.3310   -0.7210 O.3     1  UNL1       -0.3462
     11 H           1.3250    0.1940   -3.1320 H       1  UNL1        0.2126
     12 H           0.5710    1.3380   -1.2970 H       1  UNL1        0.0935
     13 H          -0.8330   -1.3160   -0.7520 H       1  UNL1        0.0671
     14 H          -0.8310    1.3010    0.8200 H       1  UNL1        0.0647
     15 H           0.5230   -1.3580    1.4650 H       1  UNL1        0.0643
     16 H           1.6920    1.3030    0.5350 H       1  UNL1        0.0587
     17 H           2.6370   -0.1050    1.0680 H       1  UNL1        0.0587
     18 H          -1.8650    0.0370   -2.2910 H       1  UNL1        0.2101
     19 H          -1.8640   -0.0510    2.3560 H       1  UNL1        0.2100
     20 H           1.4410   -0.0640    3.1210 H       1  UNL1        0.2100
@<TRIPOS>BOND
     1     1     2    1
     2     1    11    1
     3     2     3    1
     4     2    10    1
     5     2    12    1
     6     3     4    1
     7     3     7    1
     8     3    13    1
     9     4     5    1
    10     4     8    1
    11     4    14    1
    12     5     6    1
    13     5     9    1
    14     5    15    1
    15     6    10    1
    16     6    16    1
    17     6    17    1
    18     7    18    1
    19     8    19    1
    20     9    20    1
